   19
scf done: -1709.260986
 O     1.965450     0.029955     0.127019
Fe    -0.065100     0.032342     0.060152
 O    -0.116361    -0.028240    -1.975771
 O    -2.093993     0.018417     0.160278
 O    -0.075119     2.053148    -0.041675
 O    -0.073001    -1.993949    -0.001215
 O    -0.049522     0.028840     2.098384
 H     0.038188    -2.637516     0.723889
 H     2.461702     0.021296     0.968518
 H    -0.133203     2.713997     0.674961
 H    -0.899311     0.071610    -2.553192
 H    -2.579625     0.044756     1.007615
 H     0.006308     0.818101     2.671786
 H    -0.075380    -0.751727     2.686587
 H    -0.202000    -2.500965    -0.825288
 H     0.654407    -0.174770    -2.559229
 H     2.620030     0.044396    -0.597026
 H    -0.040653     2.541982    -0.886769
 H    -2.753345    -0.035945    -0.556113
